psse/psse-converter/src/test/resources/ExampleVersion32_exported.raw
0,100.0,32,0,0,60.0
 Example MODEL; OUTPUT GENERATED 2014-07-15 08:42:22

1,'Bus 1       ',138.0,3,1,1,1,1.02,0.0
2,'Bus 2       ',138.0,1,1,1,1,1.037,0.44
3,'Bus 3       ',138.0,1,1,1,1,1.0332,2.89
4,'Bus 4       ',138.0,1,1,1,1,1.0161,-1.91
5,'Bus 5       ',14.9,1,1,1,1,1.0385,-3.58
6,'Bus 6       ',20.0,2,1,1,1,1.0445,11.57
7,'Bus 7       ',18.0,1,1,1,1,1.1924,0.44
8,'Bus 8       ',14.9,1,1,1,1,1.1031,1.88
0 / END OF BUS DATA, BEGIN LOAD DATA
5,'1',1,1,1,15.0,0.0,0.0,0.0,0.0,0.0,1,1
8,'1',1,1,1,8.631,2.314,0.0,0.0,0.0,0.0,1,1
0 / END OF LOAD DATA, BEGIN FIXED SHUNT DATA
7,' 1',1,0.0,19.0
0 / END OF FIXED SHUNT DATA, BEGIN GENERATOR DATA
6,'1 ',30.2,0.0,2.7,-1.8,1.025,0,6.2,0.0,0.18,0.0,0.0,1.0,1,100.0,200.6,-200.0,1,1.0
0 / END OF GENERATOR DATA, BEGIN BRANCH DATA
1,2,'1 ',0.01938,0.05917,0.0528,0.0,0.0,0.0,0.0,0.0,0.0,0.0,1,1,0.0,1,1.0
1,4,'1 ',0.05403,0.22304,0.0492,0.0,0.0,0.0,0.0,0.0,0.0,0.0,1,1,0.0,1,1.0
2,3,'1 ',0.04699,0.19797,0.0438,0.0,0.0,0.0,0.0,0.0,0.0,0.0,1,1,0.0,1,1.0
3,3,'1 ',0.05811,0.17632,0.034,0.0,0.0,0.0,0.0,0.0,0.0,0.0,1,1,0.0,1,1.0
0 / END OF BRANCH DATA, BEGIN TRANSFORMER DATA
4,5,0,'1 ',1,1,1,0.0,0.0,2,'        ',1,1,1.0
0.0,0.20912,100.0
0.978,0.0,0.0,0.0,0.0,0.0,0,0,1.5,0.51,1.5,0.51,10,0,0.0,0.0
1.0,0.0
3,6,0,'1 ',1,1,1,0.0,0.0,2,'        ',1,1,1.0
0.0,0.55618,100.0
0.969,0.0,0.0,0.0,0.0,0.0,0,0,1.5,0.51,1.5,0.51,10,0,0.0,0.0
1.0,0.0
3,8,0,'1 ',1,1,1,0.0,0.0,2,'        ',1,1,1.0
0.0,0.25202,100.0
0.932,0.0,0.0,0.0,0.0,0.0,0,0,1.5,0.51,1.5,0.51,10,0,0.0,0.0
1.0,0.0
2,7,0,'1 ',1,1,1,0.0,0.0,2,'        ',1,1,1.0
0.0,0.35202,100.0
0.932,0.0,0.0,0.0,0.0,0.0,0,0,1.5,0.51,1.5,0.51,10,0,0.0,0.0
1.0,0.0
0 / END OF TRANSFORMER DATA, BEGIN AREA DATA
1,2,0.0,999.99,'IEEE14      '
0 / END OF AREA DATA, BEGIN TWO-TERMINAL DC DATA
0 / END OF TWO-TERMINAL DC DATA, BEGIN VOLTAGE SOURCE CONVERTER DATA
0 / END OF VOLTAGE SOURCE CONVERTER DATA, BEGIN IMPEDANCE CORRECTION DATA
0 / END OF IMPEDANCE CORRECTION DATA, BEGIN MULTI-TERMINAL DC DATA
0 / END OF MULTI-TERMINAL DC DATA, BEGIN MULTI-SECTION LINE DATA
0 / END OF MULTI-SECTION LINE DATA, BEGIN ZONE DATA
1,'Example     '
0 / END OF ZONE DATA, BEGIN INTER-AREA TRANSFER DATA
0 / END OF INTER-AREA TRANSFER DATA, BEGIN OWNER DATA
1,'OWNER 1     '
0 / END OF OWNER DATA, BEGIN FACTS CONTROL DEVICE DATA
0 / END OF FACTS CONTROL DEVICE DATA, BEGIN SWITCHED SHUNT DATA
7,1,0,1,1.051,1.0,0,100.0,'            ',0.0,1,14.95
0 / END OF SWITCHED SHUNT DATA, BEGIN GNE DEVICE DATA
0 / END OF GNE DEVICE DATA
Q
